/*--------------------------------*- C++ -*----------------------------------*\
  =========                 |
  \\      /  F ield         | OpenFOAM: The Open Source CFD Toolbox
   \\    /   O peration     | Website:  https://openfoam.org
    \\  /    A nd           | Version:  10
     \\/     M anipulation  |
\*---------------------------------------------------------------------------*/
FoamFile
{
    version     2.0;
    format      ascii;
    class       volScalarField;
    location    "0";
    object      T;
}

dimensions      [0 0 0 1 0 0 0];

internalField   uniform 298.15; // 25°C in Kelvin

boundaryField
{
    frontAndBack
    {
        type            zeroGradient;
    }

    left
    {
        type            fixedValue;
        value           uniform 393.15; // 120°C in Kelvin
    }

    right
    {
        type            zeroGradient;
    }

    lowerWall
    {
        type            zeroGradient;
    }

    upperWall
    {
        type            zeroGradient;
    }
}
// ************************************************************************* //

