/*--------------------------------*- C++ -*----------------------------------*\
  =========                 |
  \\      /  F ield         | OpenFOAM: The Open Source CFD Toolbox
   \\    /   O peration     | Website:  https://openfoam.org
    \\  /    A nd           | Version:  10
     \\/     M anipulation  |
\*---------------------------------------------------------------------------*/
FoamFile
{
    version     2.0;
    format      ascii;
    class       dictionary;
    object      setFieldsDict;
}
// * * * * * * * * * * * * * * * * * * * * * * * * * * * * * * * * * * * * * //

defaultFieldValues
(
    volScalarFieldValue T 300
);

regions
(
    boxToCell
    {
        box (0 0 0) (1 1 1);
        fieldValues
        (
            volScalarFieldValue T 350
        );
    }

    boxToCell
    {
        box (2 0 0) (3 1 1);
        fieldValues
        (
            volScalarFieldValue T 400
        );
    }

    boxToCell
    {
        box (4 0 0) (5 1 1);
        fieldValues
        (
            volScalarFieldValue T 450
        );
    }
);

// ************************************************************************* //

