/*--------------------------------*- C++ -*----------------------------------*\
  =========                 |
  \\      /  F ield         | OpenFOAM: The Open Source CFD Toolbox
   \\    /   O peration     | Website:  https://openfoam.org
    \\  /    A nd           | Version:  10
     \\/     M anipulation  |
\*---------------------------------------------------------------------------*/
FoamFile
{
    format      ascii;
    class       polyBoundaryMesh;
    location    "constant/polyMesh";
    object      boundary;
}
// * * * * * * * * * * * * * * * * * * * * * * * * * * * * * * * * * * * * * //

5
(
    frontAndBack
    {
        type            patch;
        nFaces          15000;
        startFace       1107500;
    }
    left
    {
        type            patch;
        nFaces          2500;
        startFace       1122500;
    }
    right
    {
        type            patch;
        nFaces          2500;
        startFace       1125000;
    }
    lowerWall
    {
        type            wall;
        inGroups        List<word> 1(wall);
        nFaces          7500;
        startFace       1127500;
    }
    upperWall
    {
        type            patch;
        nFaces          7500;
        startFace       1135000;
    }
)

// ************************************************************************* //
