/*--------------------------------*- C++ -*----------------------------------*\
  =========                 |
  \\      /  F ield         | OpenFOAM: The Open Source CFD Toolbox
   \\    /   O peration     | Website:  https://openfoam.org
    \\  /    A nd           | Version:  10
     \\/     M anipulation  |
\*---------------------------------------------------------------------------*/
FoamFile
{
    format      ascii;
    class       polyBoundaryMesh;
    location    "constant/polyMesh";
    object      boundary;
}
// * * * * * * * * * * * * * * * * * * * * * * * * * * * * * * * * * * * * * //

5
(
    frontAndBack
    {
        type            patch;
        nFaces          600;
        startFace       8300;
    }
    left
    {
        type            patch;
        nFaces          100;
        startFace       8900;
    }
    right
    {
        type            patch;
        nFaces          100;
        startFace       9000;
    }
    lowerWall
    {
        type            wall;
        inGroups        List<word> 1(wall);
        nFaces          300;
        startFace       9100;
    }
    upperWall
    {
        type            patch;
        nFaces          300;
        startFace       9400;
    }
)

// ************************************************************************* //
