/*--------------------------------*- C++ -*----------------------------------*\
  =========                 |
  \\      /  F ield         | OpenFOAM: The Open Source CFD Toolbox
   \\    /   O peration     | Website:  https://openfoam.org
    \\  /    A nd           | Version:  10
     \\/     M anipulation  |
\*---------------------------------------------------------------------------*/
FoamFile
{
    format      ascii;
    class       dictionary;
    object      blockMeshDict;
}

// * * * * * * * * * * * * * * * * * * * * * * * * * * * * * * * * * * * * * //

convertToMeters 1;

vertices
(
    (0   0   0)  // 0
    (0.7 0   0)  // 1
    (0.7 3.2 0)  // 2
    (0   3.2 0)  // 3
    (0   0   6.3)  // 4
    (0.7 0   6.3)  // 5
    (0.7 3.2 6.3)  // 6
    (0   3.2 6.3)  // 7

    (0.7 0   0)  // 8
    (2.2 0   0)  // 9
    (2.2 3.2 0)  // 10
    (0.7 3.2 0)  // 11
    (0.7 0   6.3)  // 12
    (2.2 0   6.3)  // 13
    (2.2 3.2 6.3)  // 14
    (0.7 3.2 6.3)  // 15

    (2.2 0   0)  // 16
    (3.2 0   0)  // 17
    (3.2 3.2 0)  // 18
    (2.2 3.2 0)  // 19
    (2.2 0   6.3)  // 20
    (3.2 0   6.3)  // 21
    (3.2 3.2 6.3)  // 22
    (2.2 3.2 6.3)  // 23
);

blocks
(
    hex (0 1 2 3 4 5 6 7) (50 50 50) simpleGrading (1 1 1)
    hex (1 9 10 2 5 13 14 6) (50 50 50) simpleGrading (1 1 1)
    hex (9 17 18 10 13 21 22 14) (50 50 50) simpleGrading (1 1 1)
);

boundary
(
    frontAndBack
    {
        type patch;
        faces
        (
            (0 1 2 3)
            (4 5 6 7)
            (1 9 10 2)
            (5 13 14 6)
            (9 17 18 10)
            (13 21 22 14)
        );
    }
    left
    {
        type patch;
        faces
        (
            (0 4 7 3)
        );
    }
    right
    {
        type patch;
        faces
        (
            (18 22 21 17)
        );
    }
    lowerWall
    {
        type wall;
        faces
        (
            (0 1 5 4)
            (1 9 13 5)
            (9 17 21 13)
        );
    }
    upperWall
    {
        type patch;
        faces
        (
            (3 7 6 2)
            (2 6 14 10)
            (10 14 22 18)
        );
    }
);

// ************************************************************************* //
