/*--------------------------------*- C++ -*----------------------------------*\
  =========                 |
  \\      /  F ield         | OpenFOAM: The Open Source CFD Toolbox
   \\    /   O peration     | Website:  https://openfoam.org
    \\  /    A nd           | Version:  10
     \\/     M anipulation  |
\*---------------------------------------------------------------------------*/
FoamFile
{
    version     2.0;
    format      ascii;
    class       dictionary;
    location    "system";
    object      setFieldsDict;
}

// * * * * * * * * * * * * * * * * * * * * * * * * * * * * * * * * * * * * * //

defaultFieldValues
(
    volScalarFieldValue DT 1.0 // default value for regions not specified below
);

regions
(
    boxToCell
    {
        box (0 0 0) (0.7 3.2 6.3);
        fieldValues ( volScalarFieldValue DT DT1 );
    }

    boxToCell
    {
        box (0.7 0 0) (2.2 3.2 6.3);
        fieldValues ( volScalarFieldValue DT DT2 );
    }

    boxToCell
    {
        box (2.2 0 0) (3.2 3.2 6.3);
        fieldValues ( volScalarFieldValue DT DT3 );
    }
);

// ************************************************************************* //

