/*--------------------------------*- C++ -*----------------------------------*\
  =========                 |
  \\      /  F ield         | OpenFOAM: The Open Source CFD Toolbox
   \\    /   O peration     | Website:  https://openfoam.org
    \\  /    A nd           | Version:  10
     \\/     M anipulation  |
\*---------------------------------------------------------------------------*/
FoamFile
{
    format      ascii;
    class       volScalarField;
    location    "0";
    object      omega;
}
// * * * * * * * * * * * * * * * * * * * * * * * * * * * * * * * * * * * * * //
FoamFile
{
    format      ascii;
    class       volScalarField;
    location    "0";
    object      omega;
}
// * * * * * * * * * * * * * * * * * * * * * * * * * * * * * * * * * * * * * //

dimensions      [0 0 -1 0 0 0 0];

internalField   uniform 0.12;

boundaryField
{
    frontAndBack
    {
        type            fixedValue;
        value           $internalField;
    }

    left
    {
        type            omegaWallFunction;
        value           uniform 1e1;
    }

    right
    {
        type            omegaWallFunction;
        value           uniform 1e1;
    }

    lowerWall
    {
        type            omegaWallFunction;
        value           uniform 1e1;
    }

    upperWall
    {
        type            omegaWallFunction;
        value           uniform 1e1;
    }
}

// ************************************************************************* //



