/*--------------------------------*- C++ -*----------------------------------*\
  =========                 |
  \\      /  F ield         | OpenFOAM: The Open Source CFD Toolbox
   \\    /   O peration     | Website:  https://openfoam.org
    \\  /    A nd           | Version:  10
     \\/     M anipulation  |
\*---------------------------------------------------------------------------*/
FoamFile
{
    format      ascii;
    class       volScalarField;
    location    "0";
    object      p;
}
// * * * * * * * * * * * * * * * * * * * * * * * * * * * * * * * * * * * * * //

dimensions      [1 -1 -2 0 0 0 0];

internalField   uniform 1e5;

boundaryField
{
    frontAndBack
    {
        type            calculated;
        value           $internalField;
    }

    left
    {
        type            calculated;
        value           $internalField;
    }

    right
    {
        type            calculated;
        value           $internalField;
    }

    lowerWall
    {
        type            calculated;
        value           $internalField;
    }

    upperWall
    {
        type            calculated;
        value           $internalField;
    }
}

// ************************************************************************* //

