/*--------------------------------*- C++ -*----------------------------------*\
  =========                 |
  \\      /  F ield         | OpenFOAM: The Open Source CFD Toolbox
   \\    /   O peration     | Website:  https://openfoam.org
    \\  /    A nd           | Version:  10
     \\/     M anipulation  |
\*---------------------------------------------------------------------------*/
FoamFile
{
    version     2.0;
    format      ascii;
    class       volVectorField;
    location    "0";
    object      U;
}
// * * * * * * * * * * * * * * * * * * * * * * * * * * * * * * * * * * * * * //

dimensions      [0 1 -1 0 0 0 0];

internalField   uniform (0 0 0);

boundaryField
{
    frontAndBack
    {
        type            zeroGradient;
    }

    left
    {
        type            fixedValue;
        value           uniform (0 0 0);
    }

    right
    {
        type            fixedValue;
        value           uniform (0 0 0);
    }

    lowerWall
    {
        type            fixedValue;
        value           uniform (0 0 0);
    }

    upperWall
    {
        type            fixedValue;
        value           uniform (0 0 0);
    }
}

// ************************************************************************* //

